CM G0KSC LFA 3el 50MHz low noise, converted with 4nec2 on 20-juil-09 22:38
CE
GW	1	21	0	-1.485	20	0	1.485	20	0.0048
GW	2	19	0.416	-1.221	20	0.416	1.221	20	0.00635
GW	3	19	0.947	-1.221	20	0.947	1.221	20	0.00635
GW	4	3	0.416	1.221	20	0.947	1.221	20	0.0048
GW	5	3	0.416	-1.221	20	0.947	-1.221	20	0.0048
GW	6	19	1.940	-1.326	20	1.940	1.326	20	0.0048
GE	0
GN	-1
EK
EX	6	2	10	0	1	0	0
FR	0	0	0	0	50.15	0
EN
